
  Mrv2503 02102605073D            

 21 22  0  0  0  0            999 V2000
    3.8434    1.8286   -0.8627 C   0  0  0  0  0  0  0  0  0  0  0  0
    4.5232    0.9552    0.0193 C   0  0  0  0  0  0  0  0  0  0  0  0
    3.7673    0.0285    0.7616 C   0  0  0  0  0  0  0  0  0  0  0  0
    2.3680    0.0000    0.6623 C   0  0  0  0  0  0  0  0  0  0  0  0
    1.6964    0.8887   -0.2003 C   0  0  0  0  0  0  0  0  0  0  0  0
    2.4301    1.8049   -1.0064 C   0  0  0  0  0  0  0  0  0  0  0  0
    8.5999    1.0923    2.2479 S   0  0  0  0  0  0  0  0  0  0  0  0
   10.2666    1.5341    2.5691 C   0  0  0  0  0  0  0  0  0  0  0  0
   10.6862    2.3457    1.5108 C   0  0  0  0  0  0  0  0  0  0  0  0
    9.7104    2.5919    0.5254 C   0  0  0  0  0  0  0  0  0  0  0  0
    8.4669    1.9866    0.7458 C   0  0  0  0  0  0  0  0  0  0  0  0
    0.0000    0.7893   -0.2105 Cl  0  0  0  0  0  0  0  0  0  0  0  0
    1.7437    2.6992   -1.9943 C   0  0  2  0  0  0  0  0  0  0  0  0
    0.8562    3.5358   -1.3626 F   0  0  0  0  0  0  0  0  0  0  0  0
    1.0592    1.9382   -2.9109 F   0  0  0  0  0  0  0  0  0  0  0  0
    2.5785    3.5086   -2.7299 F   0  0  0  0  0  0  0  0  0  0  0  0
    5.8746    0.9263    0.2023 N   0  0  0  0  0  0  0  0  0  0  0  0
    7.0061    2.1428   -0.2384 S   0  0  1  0  0  0  0  0  0  0  0  0
    6.3623    3.5915    0.0141 O   0  0  0  0  0  0  0  0  0  0  0  0
    7.3656    1.9854   -1.7941 O   0  0  0  0  0  0  0  0  0  0  0  0
   11.2624    1.0221    4.0516 Br  0  0  0  0  0  0  0  0  0  0  0  0
  1  2  1  0  0  0  0
  1  6  2  0  0  0  0
  2  3  2  0  0  0  0
  3  4  1  0  0  0  0
  4  5  2  0  0  0  0
  5  6  1  0  0  0  0
  8  9  2  0  0  0  0
  9 10  1  0  0  0  0
 10 11  2  0  0  0  0
  6 13  1  0  0  0  0
  7  8  1  0  0  0  0
  7 11  1  0  0  0  0
 18 11  1  0  0  0  0
  8 21  1  0  0  0  0
  5 12  1  0  0  0  0
 13 16  1  0  0  0  0
 13 15  1  0  0  0  0
 13 14  1  0  0  0  0
  2 17  1  0  0  0  0
 17 18  1  0  0  0  0
 18 19  2  0  0  0  0
 18 20  2  0  0  0  0
M  END
$$$$
