VAX-C12_0
     RDKit          3D

 53 57  0  0  0  0  0  0  0  0999 V2000
   -3.9833   -0.7963    2.3762 C   0  0  0  0  0  0  0  0  0  0  0  0
   -4.5722    0.3945    2.7832 C   0  0  0  0  0  0  0  0  0  0  0  0
   -4.1681    1.6118    2.2500 C   0  0  0  0  0  0  0  0  0  0  0  0
   -3.1572    1.6390    1.2881 C   0  0  0  0  0  0  0  0  0  0  0  0
   -2.5406    0.4484    0.8588 C   0  0  0  0  0  0  0  0  0  0  0  0
   -2.9705   -0.7710    1.4155 C   0  0  0  0  0  0  0  0  0  0  0  0
   -1.4422    0.4473   -0.2208 C   0  0  0  0  0  0  0  0  0  0  0  0
   -2.1085    0.4938   -1.6081 C   0  0  0  0  0  0  0  0  0  0  0  0
   -2.6136    1.6932   -2.1453 C   0  0  0  0  0  0  0  0  0  0  0  0
   -3.2339    1.7084   -3.3952 C   0  0  0  0  0  0  0  0  0  0  0  0
   -3.3537    0.5256   -4.1137 C   0  0  0  0  0  0  0  0  0  0  0  0
   -2.8629   -0.6723   -3.6085 C   0  0  0  0  0  0  0  0  0  0  0  0
   -2.2431   -0.6903   -2.3579 C   0  0  0  0  0  0  0  0  0  0  0  0
   -3.9510    0.5390   -5.3130 F   0  0  0  0  0  0  0  0  0  0  0  0
   -0.4301    1.5206   -0.0256 N   0  0  0  0  0  0  0  0  0  0  0  0
    0.2785    1.3953    1.2769 C   0  0  0  0  0  0  0  0  0  0  0  0
    1.1255    0.1191    1.4917 C   0  0  0  0  0  0  0  0  0  0  0  0
    1.5252   -0.5651    0.2462 N   0  0  0  0  0  0  0  0  0  0  0  0
    1.5419    0.1824   -1.0270 C   0  0  0  0  0  0  0  0  0  0  0  0
    0.6635    1.4551   -1.0323 C   0  0  0  0  0  0  0  0  0  0  0  0
    2.6140   -1.4419    0.4039 C   0  0  0  0  0  0  0  0  0  0  0  0
    2.2866   -2.8129    0.3097 C   0  0  0  0  0  0  0  0  0  0  0  0
    3.2454   -3.8181    0.4446 C   0  0  0  0  0  0  0  0  0  0  0  0
    4.5682   -3.4749    0.6797 C   0  0  0  0  0  0  0  0  0  0  0  0
    4.9227   -2.1296    0.7768 C   0  0  0  0  0  0  0  0  0  0  0  0
    3.9642   -1.1010    0.6415 C   0  0  0  0  0  0  0  0  0  0  0  0
    4.5330    0.3992    0.7753 C   0  0  0  0  0  0  0  0  0  0  0  0
    3.8147    1.5458    0.6762 N   0  0  0  0  0  0  0  0  0  0  0  0
    4.7069    2.5447    0.8542 N   0  0  0  0  0  3  0  0  0  0  0  0
    5.9299    2.0174    1.0519 N   0  0  0  0  0  0  0  0  0  0  0  0
    5.8467    0.6681    1.0092 N   0  0  0  0  0  0  0  0  0  0  0  0
   -5.5450    0.3670    3.7044 F   0  0  0  0  0  0  0  0  0  0  0  0
   -4.3144   -1.7352    2.8072 H   0  0  0  0  0  0  0  0  0  0  0  0
   -4.6363    2.5311    2.5847 H   0  0  0  0  0  0  0  0  0  0  0  0
   -2.8345    2.5943    0.8787 H   0  0  0  0  0  0  0  0  0  0  0  0
   -2.5139   -1.7072    1.1015 H   0  0  0  0  0  0  0  0  0  0  0  0
   -0.9444   -0.5265   -0.1491 H   0  0  0  0  0  0  0  0  0  0  0  0
   -2.5080    2.6230   -1.5898 H   0  0  0  0  0  0  0  0  0  0  0  0
   -3.6182    2.6342   -3.8094 H   0  0  0  0  0  0  0  0  0  0  0  0
   -2.9640   -1.5828   -4.1900 H   0  0  0  0  0  0  0  0  0  0  0  0
   -1.8596   -1.6315   -1.9693 H   0  0  0  0  0  0  0  0  0  0  0  0
   -0.4168    1.5106    2.1163 H   0  0  0  0  0  0  0  0  0  0  0  0
    0.9429    2.2657    1.3772 H   0  0  0  0  0  0  0  0  0  0  0  0
    0.5107   -0.5959    2.0553 H   0  0  0  0  0  0  0  0  0  0  0  0
    1.9729    0.3578    2.1438 H   0  0  0  0  0  0  0  0  0  0  0  0
    1.1443   -0.4977   -1.7923 H   0  0  0  0  0  0  0  0  0  0  0  0
    2.5524    0.4445   -1.3590 H   0  0  0  0  0  0  0  0  0  0  0  0
    0.2771    1.6209   -2.0446 H   0  0  0  0  0  0  0  0  0  0  0  0
    1.3187    2.3218   -0.8668 H   0  0  0  0  0  0  0  0  0  0  0  0
    1.2515   -3.0913    0.1261 H   0  0  0  0  0  0  0  0  0  0  0  0
    2.9546   -4.8608    0.3654 H   0  0  0  0  0  0  0  0  0  0  0  0
    5.3283   -4.2428    0.7873 H   0  0  0  0  0  0  0  0  0  0  0  0
    5.9655   -1.8746    0.9601 H   0  0  0  0  0  0  0  0  0  0  0  0
  1  2  2  0
  2  3  1  0
  3  4  2  0
  4  5  1  0
  5  6  2  0
  5  7  1  0
  7  8  1  0
  8  9  2  0
  9 10  1  0
 10 11  2  0
 11 12  1  0
 12 13  2  0
 11 14  1  0
  7 15  1  0
 15 16  1  0
 16 17  1  0
 17 18  1  0
 18 19  1  0
 19 20  1  0
 18 21  1  0
 21 22  2  0
 22 23  1  0
 23 24  2  0
 24 25  1  0
 25 26  2  0
 26 27  1  0
 27 28  2  0
 28 29  1  0
 29 30  1  0
 30 31  2  0
  2 32  1  0
  6  1  1  0
 13  8  1  0
 20 15  1  0
 26 21  1  0
 31 27  1  0
  1 33  1  0
  3 34  1  0
  4 35  1  0
  6 36  1  0
  7 37  1  0
  9 38  1  0
 10 39  1  0
 12 40  1  0
 13 41  1  0
 16 42  1  0
 16 43  1  0
 17 44  1  0
 17 45  1  0
 19 46  1  0
 19 47  1  0
 20 48  1  0
 20 49  1  0
 22 50  1  0
 23 51  1  0
 24 52  1  0
 25 53  1  0
M  RAD  1  29   2
M  END
$$$$
